sim-outorder: SimpleScalar/Alpha Tool Set version 3.0 of August, 2003.
Copyright (c) 1994-2003 by Todd M. Austin, Ph.D. and SimpleScalar, LLC.
All Rights Reserved. This version of SimpleScalar is licensed for academic
non-commercial use.  No portion of this work may be used by any commercial
entity, or for any commercial purpose, without the prior written permission
of SimpleScalar, LLC (info@simplescalar.com).

warning: section `.comment' ignored...
sim: command line: /home/milax/Escriptori/AC_Practica1/simplesim-3.0_ecx/sim-outorder -fastfwd 100000000 -max:inst 100000000 -fetch:ifqsize 6 -decode:width 4 -issue:width 6 -commit:width 6 -ruu:size 256 -lsq:size 128 -cache:il1 il1:32:128:8:l -cache:il1lat 1 -cache:dl1 dl1:32:128:8:l -cache:dl1lat 1 -cache:dl2 ul2:1024:128:8:l -cache:dl2lat 4 -mem:lat 165 1 -mem:width 16 -res:ialu 4 -res:fpalu 2 -res:imult 1 -res:fpmult 2 -redir:sim /home/milax/Escriptori/AC_Practica1/Upgrades/BSIZE/ResultsAMD_eon.txt /home/milax/Escriptori/AC_Practica1/Benchmarks/eon/exe/eon.exe chair.control.rushmeier chair.camera chair.surfaces chair.rushmeier.ppm ppm pixels_out.rushmeier 

sim: simulation started @ Wed Oct  9 18:08:37 2024, options follow:

sim-outorder: This simulator implements a very detailed out-of-order issue
superscalar processor with a two-level memory system and speculative
execution support.  This simulator is a performance simulator, tracking the
latency of all pipeline operations.

# -config                     # load configuration from a file
# -dumpconfig                 # dump configuration to a file
# -h                    false # print help message    
# -v                    false # verbose operation     
# -d                    false # enable debug message  
# -i                    false # start in Dlite debugger
-seed                       1 # random number generator seed (0 for timer seed)
# -q                    false # initialize and terminate immediately
# -chkpt               <null> # restore EIO trace execution from <fname>
# -redir:sim     /home/milax/Escriptori/AC_Practica1/Upgrades/BSIZE/ResultsAMD_eon.txt # redirect simulator output to file (non-interactive only)
# -redir:prog          <null> # redirect simulated program output to file
-nice                       0 # simulator scheduling priority
-max:inst           100000000 # maximum number of inst's to execute
-fastfwd            100000000 # number of insts skipped before timing starts
# -ptrace              <null> # generate pipetrace, i.e., <fname|stdout|stderr> <range>
-fetch:ifqsize              6 # instruction fetch queue size (in insts)
-fetch:mplat                3 # extra branch mis-prediction latency
-fetch:speed                1 # speed of front-end of machine relative to execution core
-bpred                  bimod # branch predictor type {nottaken|taken|perfect|bimod|2lev|comb}
-bpred:bimod     2048 # bimodal predictor config (<table size>)
-bpred:2lev      1 1024 8 0 # 2-level predictor config (<l1size> <l2size> <hist_size> <xor>)
-bpred:comb      1024 # combining predictor config (<meta_table_size>)
-bpred:ras                  8 # return address stack size (0 for no return stack)
-bpred:btb       512 4 # BTB config (<num_sets> <associativity>)
# -bpred:spec_update       <null> # speculative predictors update in {ID|WB} (default non-spec)
-decode:width               4 # instruction decode B/W (insts/cycle)
-issue:width                6 # instruction issue B/W (insts/cycle)
-issue:inorder          false # run pipeline with in-order issue
-issue:wrongpath         true # issue instructions down wrong execution paths
-commit:width               6 # instruction commit B/W (insts/cycle)
-ruu:size                 256 # register update unit (RUU) size
-lsq:size                 128 # load/store queue (LSQ) size
-cache:dl1       dl1:32:128:8:l # l1 data cache config, i.e., {<config>|none}
-cache:dl1lat               1 # l1 data cache hit latency (in cycles)
-cache:dl2       ul2:1024:128:8:l # l2 data cache config, i.e., {<config>|none}
-cache:dl2lat               4 # l2 data cache hit latency (in cyclesgetting pixel output filename pixels_out.rushmeier
opening control file chair.control.rushmeier
opening camera file chair.camera
opening surfaces file chair.surfaces
reading data
processing 8parts
Grid measure is 6 by 3.0001 by 6
cell dimension is 0.863065
Creating grid for list of length 21
Grid size = 7 by 4 by 7
Total occupancy = 236
reading control stream
reading camera stream
Writing to chair.rushmeier.ppm
calculating 150 by 150 image with 196 samples
)
-cache:il1       il1:32:128:8:l # l1 inst cache config, i.e., {<config>|dl1|dl2|none}
-cache:il1lat               1 # l1 instruction cache hit latency (in cycles)
-cache:il2                dl2 # l2 instruction cache config, i.e., {<config>|dl2|none}
-cache:il2lat               6 # l2 instruction cache hit latency (in cycles)
-cache:flush            false # flush caches on system calls
-cache:icompress        false # convert 64-bit inst addresses to 32-bit inst equivalents
-mem:lat         165 1 # memory access latency (<first_chunk> <inter_chunk>)
-mem:width                 16 # memory access bus width (in bytes)
-tlb:itlb        itlb:16:4096:4:l # instruction TLB config, i.e., {<config>|none}
-tlb:dtlb        dtlb:32:4096:4:l # data TLB config, i.e., {<config>|none}
-tlb:lat                   30 # inst/data TLB miss latency (in cycles)
-res:ialu                   4 # total number of integer ALU's available
-res:imult                  1 # total number of integer multiplier/dividers available
-res:memport                2 # total number of memory system ports available (to CPU)
-res:fpalu                  2 # total number of floating point ALU's available
-res:fpmult                 2 # total number of floating point multiplier/dividers available
# -pcstat              <null> # profile stat(s) against text addr's (mult uses ok)
-bugcompat              false # operate in backward-compatible bugs mode (for testing only)

  Pipetrace range arguments are formatted as follows:

    {{@|#}<start>}:{{@|#|+}<end>}

  Both ends of the range are optional, if neither are specified, the entire
  execution is traced.  Ranges that start with a `@' designate an address
  range to be traced, those that start with an `#' designate a cycle count
  range.  All other range values represent an instruction count range.  The
  second argument, if specified with a `+', indicates a value relative
  to the first argument, e.g., 1000:+100 == 1000:1100.  Program symbols may
  be used in all contexts.

    Examples:   -ptrace FOO.trc #0:#1000
                -ptrace BAR.trc @2000:
                -ptrace BLAH.trc :1500
                -ptrace UXXE.trc :
                -ptrace FOOBAR.trc @main:+278

  Branch predictor configuration examples for 2-level predictor:
    Configurations:   N, M, W, X
      N   # entries in first level (# of shift register(s))
      W   width of shift register(s)
      M   # entries in 2nd level (# of counters, or other FSM)
      X   (yes-1/no-0) xor history and address for 2nd level index
    Sample predictors:
      GAg     : 1, W, 2^W, 0
      GAp     : 1, W, M (M > 2^W), 0
      PAg     : N, W, 2^W, 0
      PAp     : N, W, M (M == 2^(N+W)), 0
      gshare  : 1, W, 2^W, 1
  Predictor `comb' combines a bimodal and a 2-level predictor.

  The cache config parameter <config> has the following format:

    <name>:<nsets>:<bsize>:<assoc>:<repl>

    <name>   - name of the cache being defined
    <nsets>  - number of sets in the cache
    <bsize>  - block size of the cache
    <assoc>  - associativity of the cache
    <repl>   - block replacement strategy, 'l'-LRU, 'f'-FIFO, 'r'-random

    Examples:   -cache:dl1 dl1:4096:32:1:l
                -dtlb dtlb:128:4096:32:r

  Cache levels can be unified by pointing a level of the instruction cache
  hierarchy at the data cache hiearchy using the "dl1" and "dl2" cache
  configuration arguments.  Most sensible combinations are supported, e.g.,

    A unified l2 cache (il2 is pointed at dl2):
      -cache:il1 il1:128:64:1:l -cache:il2 dl2
      -cache:dl1 dl1:256:32:1:l -cache:dl2 ul2:1024:64:2:l

    Or, a fully unified cache hierarchy (il1 pointed at dl1):
      -cache:il1 dl1
      -cache:dl1 ul1:256:32:1:l -cache:dl2 ul2:1024:64:2:l



sim: ** fast forwarding 100000000 insts **
sim: ** starting performance simulation **

sim: ** simulation statistics **
sim_num_insn              100000001 # total number of instructions committed
sim_num_refs               44273019 # total number of loads and stores committed
sim_num_loads              23991200 # total number of loads committed
sim_num_stores         20281819.0000 # total number of stores committed
sim_num_branches           11721932 # total number of branches committed
sim_elapsed_time                 59 # total simulation time in seconds
sim_inst_rate          1694915.2712 # simulation speed (in insts/sec)
sim_total_insn            119850905 # total number of instructions executed
sim_total_refs             53493415 # total number of loads and stores executed
sim_total_loads            29534761 # total number of loads executed
sim_total_stores       23958654.0000 # total number of stores executed
sim_total_branches         14319737 # total number of branches executed
sim_cycle                  42498019 # total simulation time in cycles
sim_IPC                      2.3531 # instructions per cycle
sim_CPI                      0.4250 # cycles per instruction
sim_exec_BW                  2.8202 # total instructions (mis-spec + committed) per cycle
sim_IPB                      8.5310 # instruction per branch
IFQ_count                 126105922 # cumulative IFQ occupancy
IFQ_fcount                   224741 # cumulative IFQ full count
ifq_occupancy                2.9673 # avg IFQ occupancy (insn's)
ifq_rate                     2.8202 # avg IFQ dispatch rate (insn/cycle)
ifq_latency                  1.0522 # avg IFQ occupant latency (cycle's)
ifq_full                     0.0053 # fraction of time (cycle's) IFQ was full
RUU_count                1590740615 # cumulative RUU occupancy
RUU_fcount                   142709 # cumulative RUU full count
ruu_occupancy               37.4309 # avg RUU occupancy (insn's)
ruu_rate                     2.8202 # avg RUU dispatch rate (insn/cycle)
ruu_latency                 13.2727 # avg RUU occupant latency (cycle's)
ruu_full                     0.0034 # fraction of time (cycle's) RUU was full
LSQ_count                 744020151 # cumulative LSQ occupancy
LSQ_fcount                    22483 # cumulative LSQ full count
lsq_occupancy               17.5072 # avg LSQ occupancy (insn's)
lsq_rate                     2.8202 # avg LSQ dispatch rate (insn/cycle)
lsq_latency                  6.2079 # avg LSQ occupant latency (cycle's)
lsq_full                     0.0005 # fraction of time (cycle's) LSQ was full
sim_slip                 2345257599 # total number of slip cycles
avg_sim_slip                23.4526 # the average slip between issue and retirement
bpred_bimod.lookups        14753719 # total number of bpred lookups
bpred_bimod.updates        11721931 # total number of updates
bpred_bimod.addr_hits      10270315 # total number of address-predicted hits
bpred_bimod.dir_hits       10578604 # total number of direction-predicted hits (includes addr-hits)
bpred_bimod.misses          1143327 # total number of misses
bpred_bimod.jr_hits         1458737 # total number of address-predicted hits for JR's
bpred_bimod.jr_seen         1766795 # total number of JR's seen
bpred_bimod.jr_non_ras_hits.PP       315710 # total number of address-predicted hits for non-RAS JR's
bpred_bimod.jr_non_ras_seen.PP       437945 # total number of non-RAS JR's seen
bpred_bimod.bpred_addr_rate    0.8762 # branch address-prediction rate (i.e., addr-hits/updates)
bpred_bimod.bpred_dir_rate    0.9025 # branch direction-prediction rate (i.e., all-hits/updates)
bpred_bimod.bpred_jr_rate    0.8256 # JR address-prediction rate (i.e., JR addr-hits/JRs seen)
bpred_bimod.bpred_jr_non_ras_rate.PP    0.7209 # non-RAS JR addr-pred rate (ie, non-RAS JR hits/JRs seen)
bpred_bimod.retstack_pushes      1480342 # total number of address pushed onto ret-addr stack
bpred_bimod.retstack_pops      1665414 # total number of address popped off of ret-addr stack
bpred_bimod.used_ras.PP      1328850 # total number of RAS predictions used
bpred_bimod.ras_hits.PP      1143027 # total number of RAS hits
bpred_bimod.ras_rate.PP    0.8602 # RAS prediction rate (i.e., RAS hits/used RAS)
il1.accesses              125405751 # total number of accesses
il1.hits                  125205111 # total number of hits
il1.misses                   200640 # total number of misses
il1.replacements             200416 # total number of replacements
il1.writebacks                    0 # total number of writebacks
il1.invalidations                 0 # total number of invalidations
il1.miss_rate                0.0016 # miss rate (i.e., misses/ref)
il1.repl_rate                0.0016 # replacement rate (i.e., repls/ref)
il1.wb_rate                  0.0000 # writeback rate (i.e., wrbks/ref)
il1.inv_rate                 0.0000 # invalidation rate (i.e., invs/ref)
dl1.accesses               43625559 # total number of accesses
dl1.hits                   43607265 # total number of hits
dl1.misses                    18294 # total number of misses
dl1.replacements              18038 # total number of replacements
dl1.writebacks                 6237 # total number of writebacks
dl1.invalidations                 0 # total number of invalidations
dl1.miss_rate                0.0004 # miss rate (i.e., misses/ref)
dl1.repl_rate                0.0004 # replacement rate (i.e., repls/ref)
dl1.wb_rate                  0.0001 # writeback rate (i.e., wrbks/ref)
dl1.inv_rate                 0.0000 # invalidation rate (i.e., invs/ref)
ul2.accesses                 225171 # total number of accesses
ul2.hits                     224440 # total number of hits
ul2.misses                      731 # total number of misses
ul2.replacements                  0 # total number of replacements
ul2.writebacks                    0 # total number of writebacks
ul2.invalidations                 0 # total number of invalidations
ul2.miss_rate                0.0032 # miss rate (i.e., misses/ref)
ul2.repl_rate                0.0000 # replacement rate (i.e., repls/ref)
ul2.wb_rate                  0.0000 # writeback rate (i.e., wrbks/ref)
ul2.inv_rate                 0.0000 # invalidation rate (i.e., invs/ref)
itlb.accesses             125405751 # total number of accesses
itlb.hits                 125405711 # total number of hits
itlb.misses                      40 # total number of misses
itlb.replacements                 0 # total number of replacements
itlb.writebacks                   0 # total number of writebacks
itlb.invalidations                0 # total number of invalidations
itlb.miss_rate               0.0000 # miss rate (i.e., misses/ref)
itlb.repl_rate               0.0000 # replacement rate (i.e., repls/ref)
itlb.wb_rate                 0.0000 # writeback rate (i.e., wrbks/ref)
itlb.inv_rate                0.0000 # invalidation rate (i.e., invs/ref)
dtlb.accesses              46783677 # total number of accesses
dtlb.hits                  46783619 # total number of hits
dtlb.misses                      58 # total number of misses
dtlb.replacements                 0 # total number of replacements
dtlb.writebacks                   0 # total number of writebacks
dtlb.invalidations                0 # total number of invalidations
dtlb.miss_rate               0.0000 # miss rate (i.e., misses/ref)
dtlb.repl_rate               0.0000 # replacement rate (i.e., repls/ref)
dtlb.wb_rate                 0.0000 # writeback rate (i.e., wrbks/ref)
dtlb.inv_rate                0.0000 # invalidation rate (i.e., invs/ref)
sim_invalid_addrs                 0 # total non-speculative bogus addresses seen (debug var)
ld_text_base           0x0120000000 # program text (code) segment base
ld_text_size                 901120 # program text (code) size in bytes
ld_data_base           0x0140000000 # program initialized data segment base
ld_data_size                 330704 # program init'ed `.data' and uninit'ed `.bss' size in bytes
ld_stack_base          0x011ff9b000 # program stack segment base (highest address in stack)
ld_stack_size                 16384 # program initial stack size
ld_prog_entry          0x0120020a30 # program entry point (initial PC)
ld_environ_base        0x011ff97000 # program environment base address address
ld_target_big_endian              0 # target executable endian-ness, non-zero if big endian
mem.page_count                  166 # total number of pages allocated
mem.page_mem                  1328k # total size of memory pages allocated
mem.ptab_misses              258811 # total first level page table misses
mem.ptab_accesses        1690060677 # total page table accesses
mem.ptab_miss_rate           0.0002 # first level page table miss rate

