sim-outorder: SimpleScalar/Alpha Tool Set version 3.0 of August, 2003.
Copyright (c) 1994-2003 by Todd M. Austin, Ph.D. and SimpleScalar, LLC.
All Rights Reserved. This version of SimpleScalar is licensed for academic
non-commercial use.  No portion of this work may be used by any commercial
entity, or for any commercial purpose, without the prior written permission
of SimpleScalar, LLC (info@simplescalar.com).

warning: section `.comment' ignored...
sim: command line: /home/milax/Escriptori/AC_Practica1/simplesim-3.0_ecx/sim-outorder -fastfwd 100000000 -max:inst 100000000 -fetch:ifqsize 6 -decode:width 6 -issue:width 6 -commit:width 6 -ruu:size 512 -lsq:size 256 -cache:il1 il1:64:64:8:l -cache:il1lat 4 -cache:dl1 dl1:64:64:16:l -cache:dl1lat 4 -cache:dl2 ul2:4096:64:8:l -cache:dl2lat 12 -redir:sim /home/milax/Escriptori/AC_Practica1/Results/Results_ammp.txt /home/milax/Escriptori/AC_Practica1/Benchmarks/ammp/exe/ammp.exe ammp 

sim: simulation started @ Mon Oct  7 17:51:19 2024, options follow:

sim-outorder: This simulator implements a very detailed out-of-order issue
superscalar processor with a two-level memory system and speculative
execution support.  This simulator is a performance simulator, tracking the
latency of all pipeline operations.

# -config                     # load configuration from a file
# -dumpconfig                 # dump configuration to a file
# -h                    false # print help message    
# -v                    false # verbose operation     
# -d                    false # enable debug message  
# -i                    false # start in Dlite debugger
-seed                       1 # random number generator seed (0 for timer seed)
# -q                    false # initialize and terminate immediately
# -chkpt               <null> # restore EIO trace execution from <fname>
# -redir:sim     /home/milax/Escriptori/AC_Practica1/Results/Results_ammp.txt # redirect simulator output to file (non-interactive only)
# -redir:prog          <null> # redirect simulated program output to file
-nice                       0 # simulator scheduling priority
-max:inst           100000000 # maximum number of inst's to execute
-fastfwd            100000000 # number of insts skipped before timing starts
# -ptrace              <null> # generate pipetrace, i.e., <fname|stdout|stderr> <range>
-fetch:ifqsize              6 # instruction fetch queue size (in insts)
-fetch:mplat                3 # extra branch mis-prediction latency
-fetch:speed                1 # speed of front-end of machine relative to execution core
-bpred                  bimod # branch predictor type {nottaken|taken|perfect|bimod|2lev|comb}
-bpred:bimod     2048 # bimodal predictor config (<table size>)
-bpred:2lev      1 1024 8 0 # 2-level predictor config (<l1size> <l2size> <hist_size> <xor>)
-bpred:comb      1024 # combining predictor config (<meta_table_size>)
-bpred:ras                  8 # return address stack size (0 for no return stack)
-bpred:btb       512 4 # BTB config (<num_sets> <associativity>)
# -bpred:spec_update       <null> # speculative predictors update in {ID|WB} (default non-spec)
-decode:width               6 # instruction decode B/W (insts/cycle)
-issue:width                6 # instruction issue B/W (insts/cycle)
-issue:inorder          false # run pipeline with in-order issue
-issue:wrongpath         true # issue instructions down wrong execution paths
-commit:width               6 # instruction commit B/W (insts/cycle)
-ruu:size                 512 # register update unit (RUU) size
-lsq:size                 256 # load/store queue (LSQ) size
-cache:dl1       dl1:64:64:16:l # l1 data cache config, i.e., {<config>|none}
-cache:dl1lat               4 # l1 data cache hit latency (in cycles)
-cache:dl2       ul2:4096:64:8:l # l2 data cache config, i.e., {<config>|none}
-cache:dl2lat              12 # l2 data cache hit latency (in cycles)
-cache:il1       il1:64:64:8:l # l1 inst cache config, i.e., {<config>|dl1|dl2|none}
-cache:il1lat               4 # l1 instruction cache hit latency (in cycles)
-cache:il2                d